----------------------------------------------------------
Initialized.
BEGIN Configuration File: /mnt/d/MORA/Mora/Mora/MNSIM/NoC/logs/configs/inj_rate_6_mesh_config
// $Id$

// Copyright (c) 2007-2015, Trustees of The Leland Stanford Junior University
// All rights reserved.
//
// Redistribution and use in source and binary forms, with or without
// modification, are permitted provided that the following conditions are met:
//
// Redistributions of source code must retain the above copyright notice, this
// list of conditions and the following disclaimer.
// Redistributions in binary form must reproduce the above copyright notice,
// this list of conditions and the following disclaimer in the documentation
// and/or other materials provided with the distribution.
//
// THIS SOFTWARE IS PROVIDED BY THE COPYRIGHT HOLDERS AND CONTRIBUTORS "AS IS"
// AND ANY EXPRESS OR IMPLIED WARRANTIES, INCLUDING, BUT NOT LIMITED TO, THE
// IMPLIED WARRANTIES OF MERCHANTABILITY AND FITNESS FOR A PARTICULAR PURPOSE
// ARE DISCLAIMED. IN NO EVENT SHALL THE COPYRIGHT OWNER OR CONTRIBUTORS BE
// LIABLE FOR ANY DIRECT, INDIRECT, INCIDENTAL, SPECIAL, EXEMPLARY, OR
// CONSEQUENTIAL DAMAGES (INCLUDING, BUT NOT LIMITED TO, PROCUREMENT OF
// SUBSTITUTE GOODS OR SERVICES; LOSS OF USE, DATA, OR PROFITS; OR BUSINESS
// INTERRUPTION) HOWEVER CAUSED AND ON ANY THEORY OF LIABILITY, WHETHER IN
// CONTRACT, STRICT LIABILITY, OR TORT (INCLUDING NEGLIGENCE OR OTHERWISE)
// ARISING IN ANY WAY OUT OF THE USE OF THIS SOFTWARE, EVEN IF ADVISED OF THE
// POSSIBILITY OF SUCH DAMAGE.

//8X8 mesh with 1 flits per packet under injection mode
//injection rate here is packet per cycle, NOT flit per cycle

// Topology

topology = mesh;
k=15;
n=2;

// Routing
routing_function = dor;

in_ports = 1;
out_ports = 1;

//Custom Traffic
traffic = custom;
injection_process = custom;

// Constant delays
routing_delay = 1;
vc_alloc_delay = 1;
sw_alloc_delay = 1;
st_final_delay = 1;

packet_size = 1;


// Simulation
sim_type = latency;
sample_period = 10000;
warmup_periods = 2;
max_samples = 1;

injection_rate = 0.000001;

num_vcs = 1;

buf_size = 1;
vc_buf_size = 1;
output_buffer_size = 1;

private_bufs = 1;
private_buf_size = 1;

sim_power = 1;

tech_file = techfile.txt;

channel_width = 32;

END Configuration File: /mnt/d/MORA/Mora/Mora/MNSIM/NoC/logs/configs/inj_rate_6_mesh_config
Class 0:
Packet latency average = 77.2624
	minimum = 12
	maximum = 249
Network latency average = 76.7139
	minimum = 12
	maximum = 246
Slowest packet = 1913
Flit latency average = 76.7139
	minimum = 12
	maximum = 246
Slowest flit = 1913
Fragmentation average = 0
	minimum = 0
	maximum = 0
Injected packet rate average = 0.00490444
	minimum = 0 (at node 76)
	maximum = 0.0167 (at node 14)
Accepted packet rate average = 0.00486711
	minimum = 0 (at node 0)
	maximum = 0.0096 (at node 131)
Injected flit rate average = 0.00490444
	minimum = 0 (at node 76)
	maximum = 0.0167 (at node 14)
Accepted flit rate average= 0.00486711
	minimum = 0 (at node 0)
	maximum = 0.0096 (at node 131)
Injected packet length average = 1
Accepted packet length average = 1
Total in-flight flits = 85 (0 measured)
latency change    = 1
throughput change = 1
Too many sample periods needed to converge
Simulation unstable, ending ...
Total run time 3.81102
L = 2 K = 8.1 M = 2 N = 1
-----------------------------------------
- OCN Power Summary
- Completion Time:         10000
- Flit Widths:            32
- Channel Wire Power:      4.36145
- Channel Clock Power:     2.5563
- Channel Retiming Power:  0.0541887
- Channel Leakage Power:   0.96368
- Input Read Power:        0.0689711
- Input Write Power:       0.0689883
- Input Leakage Power:     0.010368
- Switch Power:            0.120416
- Switch Control Power:    0.0552119
- Switch Leakage Power:    0.411786
- Output DFF Power:        0.0252153
- Output Clk Power:        1.06513
- Output Control Power:    0.0130132
- Total Power:             9.77472
-----------------------------------------

-----------------------------------------
- OCN Area Summary
- Channel Area:  0.191545
- Switch  Area:  0.147456
- Input  Area:   0.0110592
- Output  Area:  0.0294912
- Total Area:    0.379552
-----------------------------------------
