----------------------------------------------------------
Initialized.
BEGIN Configuration File: /mnt/d/MORA/Mora/Mora/MNSIM/NoC/logs/configs/inj_rate_2_mesh_config
// $Id$

// Copyright (c) 2007-2015, Trustees of The Leland Stanford Junior University
// All rights reserved.
//
// Redistribution and use in source and binary forms, with or without
// modification, are permitted provided that the following conditions are met:
//
// Redistributions of source code must retain the above copyright notice, this
// list of conditions and the following disclaimer.
// Redistributions in binary form must reproduce the above copyright notice,
// this list of conditions and the following disclaimer in the documentation
// and/or other materials provided with the distribution.
//
// THIS SOFTWARE IS PROVIDED BY THE COPYRIGHT HOLDERS AND CONTRIBUTORS "AS IS"
// AND ANY EXPRESS OR IMPLIED WARRANTIES, INCLUDING, BUT NOT LIMITED TO, THE
// IMPLIED WARRANTIES OF MERCHANTABILITY AND FITNESS FOR A PARTICULAR PURPOSE
// ARE DISCLAIMED. IN NO EVENT SHALL THE COPYRIGHT OWNER OR CONTRIBUTORS BE
// LIABLE FOR ANY DIRECT, INDIRECT, INCIDENTAL, SPECIAL, EXEMPLARY, OR
// CONSEQUENTIAL DAMAGES (INCLUDING, BUT NOT LIMITED TO, PROCUREMENT OF
// SUBSTITUTE GOODS OR SERVICES; LOSS OF USE, DATA, OR PROFITS; OR BUSINESS
// INTERRUPTION) HOWEVER CAUSED AND ON ANY THEORY OF LIABILITY, WHETHER IN
// CONTRACT, STRICT LIABILITY, OR TORT (INCLUDING NEGLIGENCE OR OTHERWISE)
// ARISING IN ANY WAY OUT OF THE USE OF THIS SOFTWARE, EVEN IF ADVISED OF THE
// POSSIBILITY OF SUCH DAMAGE.

//8X8 mesh with 1 flits per packet under injection mode
//injection rate here is packet per cycle, NOT flit per cycle

// Topology

topology = mesh;
k=5;
n=2;

// Routing
routing_function = dor;

in_ports = 1;
out_ports = 1;

//Custom Traffic
traffic = custom;
injection_process = custom;

// Constant delays
routing_delay = 1;
vc_alloc_delay = 1;
sw_alloc_delay = 1;
st_final_delay = 1;

packet_size = 1;


// Simulation
sim_type = latency;
sample_period = 10000;
warmup_periods = 2;
max_samples = 1;

injection_rate = 0.000001;

num_vcs = 1;

buf_size = 1;
vc_buf_size = 1;
output_buffer_size = 1;

private_bufs = 1;
private_buf_size = 1;

sim_power = 1;

tech_file = techfile.txt;

channel_width = 32;

END Configuration File: /mnt/d/MORA/Mora/Mora/MNSIM/NoC/logs/configs/inj_rate_2_mesh_config
Class 0:
Packet latency average = 25.5904
	minimum = 12
	maximum = 55
Network latency average = 24.9787
	minimum = 12
	maximum = 43
Slowest packet = 28
Flit latency average = 24.9787
	minimum = 12
	maximum = 43
Slowest flit = 181
Fragmentation average = 0
	minimum = 0
	maximum = 0
Injected packet rate average = 0.000756
	minimum = 0 (at node 1)
	maximum = 0.0189 (at node 0)
Accepted packet rate average = 0.000752
	minimum = 0 (at node 0)
	maximum = 0.0015 (at node 6)
Injected flit rate average = 0.000756
	minimum = 0 (at node 1)
	maximum = 0.0189 (at node 0)
Accepted flit rate average= 0.000752
	minimum = 0 (at node 0)
	maximum = 0.0015 (at node 6)
Injected packet length average = 1
Accepted packet length average = 1
Total in-flight flits = 1 (0 measured)
latency change    = 1
throughput change = 1
Too many sample periods needed to converge
Simulation unstable, ending ...
Total run time 0.262171
L = 2 K = 8.1 M = 2 N = 1
-----------------------------------------
- OCN Power Summary
- Completion Time:         10000
- Flit Widths:            32
- Channel Wire Power:      0.0288087
- Channel Clock Power:     0.284033
- Channel Retiming Power:  0.000357932
- Channel Leakage Power:   0.107076
- Input Read Power:        0.000401912
- Input Write Power:       0.000401912
- Input Leakage Power:     0.001152
- Switch Power:            0.000721203
- Switch Control Power:    0.000321398
- Switch Leakage Power:    0.045754
- Output DFF Power:        0.000146783
- Output Clk Power:        0.118347
- Output Control Power:    7.5752e-05
- Total Power:             0.587598
-----------------------------------------

-----------------------------------------
- OCN Area Summary
- Channel Area:  0.0212828
- Switch  Area:  0.016384
- Input  Area:   0.0012288
- Output  Area:  0.0032768
- Total Area:    0.0421724
-----------------------------------------
